egret/models/tests/pglib_opf_case3_lmbd_acopf_0930.json
{"elements": {"bus": {"1": {"matpower_bustype": "ref", "area": 1.0, "vm": 1.076076149528445, "va": 0.0, "base_kv": 240.0, "zone": 1.0, "v_min": 0.9, "v_max": 1.1, "lmp": 33.46035308063762, "qlmp": 5.305829573994881e-11, "pl": 102.30000000000004, "ql": 37.2}, "2": {"matpower_bustype": "PV", "area": 1.0, "vm": 0.9261705381542467, "va": 0.16344564247060173, "base_kv": 240.0, "zone": 1.0, "v_min": 0.9, "v_max": 1.1, "lmp": 29.44642285643612, "qlmp": -1.0066604210665714e-11, "pl": 102.30000000000004, "ql": 37.2}, "3": {"matpower_bustype": "PV", "area": 1.0, "vm": 0.9, "va": -0.26461254086297714, "base_kv": 240.0, "zone": 1.0, "v_min": 0.9, "v_max": 1.1, "lmp": 38.07298035105939, "qlmp": -9.228472644731117e-12, "pl": 88.35000000000001, "ql": 46.5}}, "load": {"load_1": {"in_service": true, "p_load": 102.30000000000004, "q_load": 37.2, "bus": "1"}, "load_2": {"in_service": true, "p_load": 102.30000000000004, "q_load": 37.2, "bus": "2"}, "load_3": {"in_service": true, "p_load": 88.35000000000001, "q_load": 46.5, "bus": "3"}}, "generator": {"1": {"bus": "1", "pg": 129.36524129416281, "qg": 45.34232720881262, "vg": 1.0, "mbase": 100.0, "in_service": true, "p_min": 0.0, "p_max": 2000.0, "q_min": -1000.0, "q_max": 1000.0, "generator_type": "thermal", "p_cost": {"data_type": "cost_curve", "cost_curve_type": "polynomial", "values": {"0": 0.0, "1": 5.0, "2": 0.11}}, "startup_cost": 0.0, "shutdown_cost": 0.0}, "2": {"bus": "2", "pg": 166.1554285853426, "qg": -8.74019510066465, "vg": 1.0, "mbase": 100.0, "in_service": true, "p_min": 0.0, "p_max": 2000.0, "q_min": -1000.0, "q_max": 1000.0, "generator_type": "thermal", "p_cost": {"data_type": "cost_curve", "cost_curve_type": "polynomial", "values": {"0": 0.0, "1": 1.2, "2": 0.08500000000000002}}, "startup_cost": 0.0, "shutdown_cost": 0.0}, "3": {"bus": "3", "pg": 0.0, "qg": -7.326560491040604, "vg": 1.0, "mbase": 100.0, "in_service": true, "p_min": 0.0, "p_max": 0.0, "q_min": -1000.0, "q_max": 1000.0, "generator_type": "thermal", "p_cost": {"data_type": "cost_curve", "cost_curve_type": "polynomial", "values": {"0": 0.0, "1": 0.0, "2": 0.0}}, "startup_cost": 0.0, "shutdown_cost": 0.0}}, "branch": {"1": {"from_bus": "1", "to_bus": "3", "resistance": 0.065, "reactance": 0.62, "charging_susceptance": 0.45, "branch_type": "line", "rating_long_term": 9000.0, "rating_short_term": 9000.0, "rating_emergency": 9000.0, "in_service": true, "angle_diff_min": -30.0, "angle_diff_max": 30.0, "pf": 44.141705823629316, "qf": 5.315360489862062, "pt": -42.49556842068074, "qt": -33.89238921147361, "pfl": 1.646137402948572, "qfl": -28.577028721611548, "pf_dual": 3346.0353080638793, "qf_dual": 5.322580905526501e-09}, "2": {"from_bus": "3", "to_bus": "2", "resistance": 0.025, "reactance": 0.75, "charging_susceptance": 0.7, "branch_type": "line", "rating_long_term": 50.0, "rating_short_term": 50.0, "rating_emergency": 50.0, "in_service": true, "angle_diff_min": -30.0, "angle_diff_max": 30.0, "pf": -45.85443157931926, "qf": -19.934171279566996, "pt": 46.52525105241506, "qt": -18.31395941942214, "pfl": 0.6708194730957961, "qfl": -38.24813069898914, "pf_dual": 3518.5963602057996, "qf_dual": -125.50648242808468}, "3": {"from_bus": "1", "to_bus": "2", "resistance": 0.042, "reactance": 0.9, "charging_susceptance": 0.3, "branch_type": "line", "rating_long_term": 9000.0, "rating_short_term": 9000.0, "rating_emergency": 9000.0, "in_service": true, "angle_diff_min": -30.0, "angle_diff_max": 30.0, "pf": -17.076464529466556, "qf": 2.8269667189505574, "pt": 17.33017753292751, "qt": -27.626235681242516, "pfl": 0.2537130034609564, "qfl": -24.799268962291958, "pf_dual": 3346.0353080637146, "qf_dual": 5.315122211978393e-09}}}, "system": {"model_name": "pglib_opf_case3_lmbd", "mpc_version": "'2'", "baseMVA": 100.0, "reference_bus": "1", "reference_bus_angle": 0.0, "total_cost": 5033.751190946097, "ploss": 2.5706698795053247, "qloss": -91.62442838289265, "mult": 0.93}, "results": {"time": 0.02219700813293457, "#_cons": 36, "#_vars": 23, "termination": "optimal"}}